/*--------------------------------*- C++ -*----------------------------------*\
| =========                 |                                                 |
| \\      /  F ield         | OpenFOAM: The Open Source CFD Toolbox           |
|  \\    /   O peration     | Version:  2.2.0                                 |
|   \\  /    A nd           | Web:      www.OpenFOAM.org                      |
|    \\/     M anipulation  |                                                 |
\*---------------------------------------------------------------------------*/
FoamFile
{
    version     2.0;
    format      ascii;
    class       dictionary;
    location    "constant";
    object      engineGeometry;
}
// * * * * * * * * * * * * * * * * * * * * * * * * * * * * * * * * * * * * * //

engineMesh      layered;

conRodLength    conRodLength [ 0 1 0 0 0 0 0 ] 0.147;

bore            bore [ 0 1 0 0 0 0 0 ] 0.092;

stroke          stroke [ 0 1 0 0 0 0 0 ] 0.08423;

clearance       clearance [ 0 1 0 0 0 0 0 ] 0.00115;

rpm             rpm [ 0 0 -1 0 0 0 0 ] 1000;

swirlAxis       ( 0 0 1 );

swirlCenter     ( 0 0 0 );

// swirlRPMRatio   swirlRPMRatio [0 0 0 0 0 0 0] 3.0;
swirlRPMRatio   swirlRPMRatio [0 0 0 0 0 0 0] 1.0;

swirlProfile    swirlProfile [0 0 0 0 0 0 0] 3.11;

// ************************************************************************* //
